<?xml version="1.0" encoding="UTF-8"?>

<!-- generated on 2026-01-03T15:43:07.864201+06:00 by Eclipse SUMO netedit 1.25.0
<neteditConfiguration xmlns:xsi="http://www.w3.org/2001/XMLSchema-instance" xsi:noNamespaceSchemaLocation="http://sumo.dlr.de/xsd/neteditConfiguration.xsd">

    <input>
        <sumo-net-file value="D:\shuvo_city.net.xml"/>
    </input>

    <output>
        <output-file value="D:\shuvo_city.net.xml"/>
    </output>

    <processing>
        <offset.disable-normalization value="true"/>
    </processing>

    <junctions>
        <no-turnarounds value="true"/>
    </junctions>

    <netedit>
        <new-network value="false"/>
    </netedit>

</neteditConfiguration>
-->

<net version="1.20" junctionCornerDetail="5" limitTurnSpeed="5.50" xmlns:xsi="http://www.w3.org/2001/XMLSchema-instance" xsi:noNamespaceSchemaLocation="http://sumo.dlr.de/xsd/net_file.xsd">

    <location netOffset="0.00,0.00" convBoundary="-100.00,-300.00,500.00,200.00" origBoundary="10000000000.00,10000000000.00,-10000000000.00,-10000000000.00" projParameter="!"/>

    <edge id=":J1_0" function="internal">
        <lane id=":J1_0_0" index="0" speed="6.51" length="9.03" shape="92.80,-1.60 95.25,-1.95 97.00,-3.00 98.05,-4.75 98.40,-7.20"/>
    </edge>
    <edge id=":J1_1" function="internal">
        <lane id=":J1_1_0" index="0" speed="13.89" length="15.73" shape="92.80,-1.60 108.53,-1.60"/>
    </edge>
    <edge id=":J1_2" function="internal">
        <lane id=":J1_2_0" index="0" speed="5.97" length="11.90" shape="92.80,-1.60 97.29,-1.25 99.71,-0.21 100.04,1.53 98.30,3.96"/>
    </edge>
    <edge id=":J10_0" function="internal">
        <lane id=":J10_0_0" index="0" speed="13.89" length="0.10" shape="100.00,98.40 100.00,98.40"/>
    </edge>
    <edge id=":J2_0" function="internal">
        <lane id=":J2_0_0" index="0" speed="5.47" length="9.74" shape="9.42,92.84 7.48,95.27 7.22,97.01 8.63,98.05 11.73,98.40"/>
    </edge>
    <edge id=":J2_1" function="internal">
        <lane id=":J2_1_0" index="0" speed="12.23" length="13.83" shape="9.42,92.84 6.00,96.47 3.56,99.54 2.09,102.05 1.60,104.00"/>
    </edge>
    <edge id=":J4_0" function="internal">
        <lane id=":J4_0_0" index="0" speed="6.51" length="9.03" shape="192.80,-1.60 195.25,-1.95 197.00,-3.00 198.05,-4.75 198.40,-7.20"/>
    </edge>
    <edge id=":J4_1" function="internal">
        <lane id=":J4_1_0" index="0" speed="13.89" length="14.40" shape="192.80,-1.60 207.20,-1.60"/>
    </edge>
    <edge id=":J4_2" function="internal">
        <lane id=":J4_2_0" index="0" speed="7.33" length="11.73" shape="192.80,-1.60 196.65,-1.25 199.40,-0.20 201.05,1.55 201.60,4.00"/>
    </edge>
    <edge id=":J5_0" function="internal">
        <lane id=":J5_0_0" index="0" speed="13.89" length="0.10" shape="201.60,100.00 201.60,100.00"/>
    </edge>
    <edge id=":J7_0" function="internal">
        <lane id=":J7_0_0" index="0" speed="6.51" length="9.03" shape="292.80,-1.60 295.25,-1.95 297.00,-3.00 298.05,-4.75 298.40,-7.20"/>
    </edge>
    <edge id=":J7_1" function="internal">
        <lane id=":J7_1_0" index="0" speed="13.89" length="14.40" shape="292.80,-1.60 307.20,-1.60"/>
    </edge>
    <edge id=":J7_2" function="internal">
        <lane id=":J7_2_0" index="0" speed="7.33" length="11.73" shape="292.80,-1.60 296.65,-1.25 299.40,-0.20 301.05,1.55 301.60,4.00"/>
    </edge>
    <edge id=":J8_0" function="internal">
        <lane id=":J8_0_0" index="0" speed="6.51" length="9.03" shape="301.60,92.80 301.95,95.25 303.00,97.00 304.75,98.05 307.20,98.40"/>
    </edge>
    <edge id=":J8_1" function="internal">
        <lane id=":J8_1_0" index="0" speed="13.89" length="11.20" shape="301.60,92.80 301.60,104.00"/>
    </edge>
    <edge id=":J8_2" function="internal">
        <lane id=":J8_2_0" index="0" speed="13.89" length="11.20" shape="296.00,98.40 307.20,98.40"/>
    </edge>
    <edge id=":J8_3" function="internal">
        <lane id=":J8_3_0" index="0" speed="6.51" length="9.03" shape="296.00,98.40 298.45,98.75 300.20,99.80 301.25,101.55 301.60,104.00"/>
    </edge>

    <edge id="E0" from="J0" to="J1" priority="-1">
        <lane id="E0_0" index="0" speed="13.89" length="86.77" shape="6.03,-1.60 92.80,-1.60"/>
    </edge>
    <edge id="E1" from="J1" to="J2" priority="-1">
        <lane id="E1_0" index="0" speed="13.89" length="125.70" shape="98.30,3.96 9.42,92.84"/>
    </edge>
    <edge id="E10" from="J10" to="J8" priority="-1">
        <lane id="E10_0" index="0" speed="13.89" length="196.00" shape="100.00,98.40 296.00,98.40"/>
    </edge>
    <edge id="E11" from="J8" to="J11" priority="-1">
        <lane id="E11_0" index="0" speed="13.89" length="192.80" shape="307.20,98.40 500.00,98.40"/>
    </edge>
    <edge id="E12" from="J7" to="J12" priority="-1">
        <lane id="E12_0" index="0" speed="13.89" length="192.80" shape="307.20,-1.60 500.00,-1.60"/>
    </edge>
    <edge id="E13" from="J0" to="J13" priority="-1">
        <lane id="E13_0" index="0" speed="13.89" length="135.40" shape="-3.13,5.39 -98.87,101.13"/>
    </edge>
    <edge id="E14" from="J0" to="J14" priority="-1">
        <lane id="E14_0" index="0" speed="13.89" length="95.30" shape="-4.70,1.60 -100.00,1.60"/>
    </edge>
    <edge id="E15" from="J1" to="J15" priority="-1">
        <lane id="E15_0" index="0" speed="13.89" length="292.80" shape="98.40,-7.20 98.40,-300.00"/>
    </edge>
    <edge id="E16" from="J4" to="J16" priority="-1">
        <lane id="E16_0" index="0" speed="13.89" length="292.80" shape="198.40,-7.20 198.40,-300.00"/>
    </edge>
    <edge id="E17" from="J17" to="J18" priority="-1">
        <lane id="E17_0" index="0" speed="13.89" length="100.00" shape="100.00,-101.60 200.00,-101.60"/>
    </edge>
    <edge id="E18" from="J7" to="J19" priority="-1">
        <lane id="E18_0" index="0" speed="13.89" length="292.80" shape="298.40,-7.20 298.40,-300.00"/>
    </edge>
    <edge id="E2" from="J2" to="J3" priority="-1">
        <lane id="E2_0" index="0" speed="13.89" length="96.00" shape="1.60,104.00 1.60,200.00"/>
    </edge>
    <edge id="E3" from="J1" to="J4" priority="-1">
        <lane id="E3_0" index="0" speed="13.89" length="84.27" shape="108.53,-1.60 192.80,-1.60"/>
    </edge>
    <edge id="E4" from="J4" to="J5" priority="-1">
        <lane id="E4_0" index="0" speed="13.89" length="96.00" shape="201.60,4.00 201.60,100.00"/>
    </edge>
    <edge id="E5" from="J5" to="J6" priority="-1">
        <lane id="E5_0" index="0" speed="13.89" length="100.00" shape="201.60,100.00 201.60,200.00"/>
    </edge>
    <edge id="E6" from="J4" to="J7" priority="-1">
        <lane id="E6_0" index="0" speed="13.89" length="85.60" shape="207.20,-1.60 292.80,-1.60"/>
    </edge>
    <edge id="E7" from="J7" to="J8" priority="-1">
        <lane id="E7_0" index="0" speed="13.89" length="88.80" shape="301.60,4.00 301.60,92.80"/>
    </edge>
    <edge id="E8" from="J8" to="J9" priority="-1">
        <lane id="E8_0" index="0" speed="13.89" length="96.00" shape="301.60,104.00 301.60,200.00"/>
    </edge>
    <edge id="E9" from="J2" to="J10" priority="-1">
        <lane id="E9_0" index="0" speed="13.89" length="88.27" shape="11.73,98.40 100.00,98.40"/>
    </edge>

    <tlLogic id="J1" type="static" programID="0" offset="0">
        <phase duration="82" state="GGG"/>
        <phase duration="3"  state="yyy"/>
        <phase duration="5"  state="rrr"/>
    </tlLogic>
    <tlLogic id="J2" type="static" programID="0" offset="0">
        <phase duration="82" state="GG"/>
        <phase duration="3"  state="yy"/>
        <phase duration="5"  state="rr"/>
    </tlLogic>
    <tlLogic id="J4" type="static" programID="0" offset="0">
        <phase duration="82" state="GGG"/>
        <phase duration="3"  state="yyy"/>
        <phase duration="5"  state="rrr"/>
    </tlLogic>
    <tlLogic id="J5" type="static" programID="0" offset="0">
        <phase duration="82" state="G"/>
        <phase duration="3"  state="y"/>
        <phase duration="5"  state="r"/>
    </tlLogic>
    <tlLogic id="J7" type="static" programID="0" offset="0">
        <phase duration="82" state="GGG"/>
        <phase duration="3"  state="yyy"/>
        <phase duration="5"  state="rrr"/>
    </tlLogic>
    <tlLogic id="J8" type="static" programID="0" offset="0">
        <phase duration="42" state="GGrr"/>
        <phase duration="3"  state="yyrr"/>
        <phase duration="42" state="rrGG"/>
        <phase duration="3"  state="rryy"/>
    </tlLogic>

    <junction id="J0" type="dead_end" x="0.00" y="0.00" incLanes="" intLanes="" shape="6.03,0.00 6.03,-3.20 3.68,-2.96 2.00,-2.37 -0.68,-0.83 -2.35,-0.24 -4.70,0.00 -4.70,3.20 -3.98,3.32 -3.84,3.47 -3.84,3.67 -3.98,3.94 -4.26,4.26 -2.00,6.52 0.04,4.53 1.79,2.90 3.27,1.63 4.47,0.72 5.39,0.18"/>
    <junction id="J1" type="traffic_light" x="100.00" y="0.00" incLanes="E0_0" intLanes=":J1_0_0 :J1_1_0 :J1_2_0" shape="108.53,0.00 108.53,-3.20 105.92,-3.31 103.79,-3.64 102.13,-4.20 100.95,-4.98 100.24,-5.98 100.00,-7.20 96.80,-7.20 96.36,-4.98 95.80,-4.20 95.02,-3.64 94.02,-3.31 92.80,-3.20 92.80,0.00 94.92,0.08 96.49,0.31 97.49,0.71 97.94,1.26 97.84,1.96 97.17,2.83 99.43,5.09 101.10,3.54 102.71,2.26 104.25,1.27 105.74,0.57 107.16,0.14">
        <request index="0" response="000" foes="000" cont="0"/>
        <request index="1" response="000" foes="000" cont="0"/>
        <request index="2" response="000" foes="000" cont="0"/>
    </junction>
    <junction id="J10" type="priority" x="100.00" y="100.00" incLanes="E9_0" intLanes=":J10_0_0" shape="100.00,100.00 100.00,96.80 100.00,100.00">
        <request index="0" response="0" foes="0" cont="0"/>
    </junction>
    <junction id="J11" type="dead_end" x="500.00" y="100.00" incLanes="E11_0" intLanes="" shape="500.00,96.80 500.00,100.00"/>
    <junction id="J12" type="dead_end" x="500.00" y="0.00" incLanes="E12_0" intLanes="" shape="500.00,-3.20 500.00,0.00"/>
    <junction id="J13" type="dead_end" x="-100.00" y="100.00" incLanes="E13_0" intLanes="" shape="-97.74,102.26 -100.00,100.00"/>
    <junction id="J14" type="dead_end" x="-100.00" y="0.00" incLanes="E14_0" intLanes="" shape="-100.00,3.20 -100.00,0.00"/>
    <junction id="J15" type="dead_end" x="100.00" y="-300.00" incLanes="E15_0" intLanes="" shape="96.80,-300.00 100.00,-300.00"/>
    <junction id="J16" type="dead_end" x="200.00" y="-300.00" incLanes="E16_0" intLanes="" shape="196.80,-300.00 200.00,-300.00"/>
    <junction id="J17" type="dead_end" x="100.00" y="-100.00" incLanes="" intLanes="" shape="100.00,-100.00 100.00,-103.20"/>
    <junction id="J18" type="dead_end" x="200.00" y="-100.00" incLanes="E17_0" intLanes="" shape="200.00,-103.20 200.00,-100.00"/>
    <junction id="J19" type="dead_end" x="300.00" y="-300.00" incLanes="E18_0" intLanes="" shape="296.80,-300.00 300.00,-300.00"/>
    <junction id="J2" type="traffic_light" x="0.00" y="100.00" incLanes="E1_0" intLanes=":J2_0_0 :J2_1_0" shape="0.00,104.00 3.20,104.00 4.15,101.78 5.33,101.00 6.99,100.44 9.12,100.11 11.73,100.00 11.73,96.80 9.82,96.49 9.43,96.09 9.43,95.54 9.80,94.84 10.55,93.97 8.29,91.71 5.76,94.35 3.68,96.76 2.07,98.93 0.92,100.86 0.23,102.55">
        <request index="0" response="00" foes="00" cont="0"/>
        <request index="1" response="00" foes="00" cont="0"/>
    </junction>
    <junction id="J3" type="dead_end" x="0.00" y="200.00" incLanes="E2_0" intLanes="" shape="3.20,200.00 0.00,200.00"/>
    <junction id="J4" type="traffic_light" x="200.00" y="0.00" incLanes="E3_0" intLanes=":J4_0_0 :J4_1_0 :J4_2_0" shape="200.00,4.00 203.20,4.00 203.64,1.78 204.20,1.00 204.98,0.44 205.98,0.11 207.20,0.00 207.20,-3.20 205.00,-3.31 203.20,-3.64 201.80,-4.20 200.80,-4.98 200.20,-5.98 200.00,-7.20 196.80,-7.20 196.36,-4.98 195.80,-4.20 195.02,-3.64 194.02,-3.31 192.80,-3.20 192.80,0.00 195.00,0.11 196.80,0.44 198.20,1.00 199.20,1.78 199.80,2.78">
        <request index="0" response="000" foes="000" cont="0"/>
        <request index="1" response="000" foes="000" cont="0"/>
        <request index="2" response="000" foes="000" cont="0"/>
    </junction>
    <junction id="J5" type="traffic_light" x="200.00" y="100.00" incLanes="E4_0" intLanes=":J5_0_0" shape="200.00,100.00 203.20,100.00 200.00,100.00">
        <request index="0" response="0" foes="0" cont="0"/>
    </junction>
    <junction id="J6" type="dead_end" x="200.00" y="200.00" incLanes="E5_0" intLanes="" shape="203.20,200.00 200.00,200.00"/>
    <junction id="J7" type="traffic_light" x="300.00" y="0.00" incLanes="E6_0" intLanes=":J7_0_0 :J7_1_0 :J7_2_0" shape="300.00,4.00 303.20,4.00 303.64,1.78 304.20,1.00 304.98,0.44 305.98,0.11 307.20,0.00 307.20,-3.20 305.00,-3.31 303.20,-3.64 301.80,-4.20 300.80,-4.98 300.20,-5.98 300.00,-7.20 296.80,-7.20 296.36,-4.98 295.80,-4.20 295.02,-3.64 294.02,-3.31 292.80,-3.20 292.80,0.00 295.00,0.11 296.80,0.44 298.20,1.00 299.20,1.78 299.80,2.78">
        <request index="0" response="000" foes="000" cont="0"/>
        <request index="1" response="000" foes="000" cont="0"/>
        <request index="2" response="000" foes="000" cont="0"/>
    </junction>
    <junction id="J8" type="traffic_light" x="300.00" y="100.00" incLanes="E7_0 E10_0" intLanes=":J8_0_0 :J8_1_0 :J8_2_0 :J8_3_0" shape="300.00,104.00 303.20,104.00 303.64,101.78 304.20,101.00 304.98,100.44 305.98,100.11 307.20,100.00 307.20,96.80 304.98,96.36 304.20,95.80 303.64,95.02 303.31,94.02 303.20,92.80 300.00,92.80 299.56,95.02 299.00,95.80 298.22,96.36 297.22,96.69 296.00,96.80 296.00,100.00 298.22,100.44 299.00,101.00 299.56,101.78 299.89,102.78">
        <request index="0" response="0000" foes="0100" cont="0"/>
        <request index="1" response="0000" foes="1100" cont="0"/>
        <request index="2" response="0011" foes="0011" cont="0"/>
        <request index="3" response="0010" foes="0010" cont="0"/>
    </junction>
    <junction id="J9" type="dead_end" x="300.00" y="200.00" incLanes="E8_0" intLanes="" shape="303.20,200.00 300.00,200.00"/>

    <connection from="E0" to="E15" fromLane="0" toLane="0" via=":J1_0_0" tl="J1" linkIndex="0" dir="r" state="O"/>
    <connection from="E0" to="E3" fromLane="0" toLane="0" via=":J1_1_0" tl="J1" linkIndex="1" dir="s" state="O"/>
    <connection from="E0" to="E1" fromLane="0" toLane="0" via=":J1_2_0" tl="J1" linkIndex="2" dir="l" state="O"/>
    <connection from="E1" to="E9" fromLane="0" toLane="0" via=":J2_0_0" tl="J2" linkIndex="0" dir="r" state="O"/>
    <connection from="E1" to="E2" fromLane="0" toLane="0" via=":J2_1_0" tl="J2" linkIndex="1" dir="R" state="O"/>
    <connection from="E10" to="E11" fromLane="0" toLane="0" via=":J8_2_0" tl="J8" linkIndex="2" dir="s" state="o"/>
    <connection from="E10" to="E8" fromLane="0" toLane="0" via=":J8_3_0" tl="J8" linkIndex="3" dir="l" state="o"/>
    <connection from="E3" to="E16" fromLane="0" toLane="0" via=":J4_0_0" tl="J4" linkIndex="0" dir="r" state="O"/>
    <connection from="E3" to="E6" fromLane="0" toLane="0" via=":J4_1_0" tl="J4" linkIndex="1" dir="s" state="O"/>
    <connection from="E3" to="E4" fromLane="0" toLane="0" via=":J4_2_0" tl="J4" linkIndex="2" dir="l" state="O"/>
    <connection from="E4" to="E5" fromLane="0" toLane="0" via=":J5_0_0" tl="J5" linkIndex="0" dir="s" state="O"/>
    <connection from="E6" to="E18" fromLane="0" toLane="0" via=":J7_0_0" tl="J7" linkIndex="0" dir="r" state="O"/>
    <connection from="E6" to="E12" fromLane="0" toLane="0" via=":J7_1_0" tl="J7" linkIndex="1" dir="s" state="O"/>
    <connection from="E6" to="E7" fromLane="0" toLane="0" via=":J7_2_0" tl="J7" linkIndex="2" dir="l" state="O"/>
    <connection from="E7" to="E11" fromLane="0" toLane="0" via=":J8_0_0" tl="J8" linkIndex="0" dir="r" state="O"/>
    <connection from="E7" to="E8" fromLane="0" toLane="0" via=":J8_1_0" tl="J8" linkIndex="1" dir="s" state="O"/>
    <connection from="E9" to="E10" fromLane="0" toLane="0" via=":J10_0_0" dir="s" state="M"/>

    <connection from=":J1_0" to="E15" fromLane="0" toLane="0" dir="r" state="M"/>
    <connection from=":J1_1" to="E3" fromLane="0" toLane="0" dir="s" state="M"/>
    <connection from=":J1_2" to="E1" fromLane="0" toLane="0" dir="l" state="M"/>
    <connection from=":J10_0" to="E10" fromLane="0" toLane="0" dir="s" state="M"/>
    <connection from=":J2_0" to="E9" fromLane="0" toLane="0" dir="r" state="M"/>
    <connection from=":J2_1" to="E2" fromLane="0" toLane="0" dir="R" state="M"/>
    <connection from=":J4_0" to="E16" fromLane="0" toLane="0" dir="r" state="M"/>
    <connection from=":J4_1" to="E6" fromLane="0" toLane="0" dir="s" state="M"/>
    <connection from=":J4_2" to="E4" fromLane="0" toLane="0" dir="l" state="M"/>
    <connection from=":J5_0" to="E5" fromLane="0" toLane="0" dir="s" state="M"/>
    <connection from=":J7_0" to="E18" fromLane="0" toLane="0" dir="r" state="M"/>
    <connection from=":J7_1" to="E12" fromLane="0" toLane="0" dir="s" state="M"/>
    <connection from=":J7_2" to="E7" fromLane="0" toLane="0" dir="l" state="M"/>
    <connection from=":J8_0" to="E11" fromLane="0" toLane="0" dir="r" state="M"/>
    <connection from=":J8_1" to="E8" fromLane="0" toLane="0" dir="s" state="M"/>
    <connection from=":J8_2" to="E11" fromLane="0" toLane="0" dir="s" state="M"/>
    <connection from=":J8_3" to="E8" fromLane="0" toLane="0" dir="l" state="M"/>

</net>
