<?xml version="1.0" encoding="UTF-8"?>

<!-- generated on 2026-01-03T15:53:28.942918+06:00 by Eclipse SUMO duarouter 1.25.0
<duarouterConfiguration xmlns:xsi="http://www.w3.org/2001/XMLSchema-instance" xsi:noNamespaceSchemaLocation="http://sumo.dlr.de/xsd/duarouterConfiguration.xsd">

    <input>
        <net-file value=".\maps\shuvo_city.net.xml"/>
        <route-files value="trips.trips.xml"/>
    </input>

    <output>
        <output-file value=".\maps\shuvo_city.rou.xml"/>
    </output>

    <time>
        <begin value="0"/>
        <end value="300"/>
    </time>

    <report>
        <no-warnings value="true"/>
        <ignore-errors value="true"/>
        <no-step-log value="true"/>
    </report>

</duarouterConfiguration>
-->

<routes xmlns:xsi="http://www.w3.org/2001/XMLSchema-instance" xsi:noNamespaceSchemaLocation="http://sumo.dlr.de/xsd/routes_file.xsd">
    <vehicle id="3" depart="3.00">
        <route edges="E9 E10"/>
    </vehicle>
    <vehicle id="5" depart="5.00">
        <route edges="E1 E2"/>
    </vehicle>
    <vehicle id="6" depart="6.00">
        <route edges="E0 E3 E6 E7 E11"/>
    </vehicle>
    <vehicle id="11" depart="11.00">
        <route edges="E10 E11"/>
    </vehicle>
    <vehicle id="13" depart="13.00">
        <route edges="E0 E1 E9 E10"/>
    </vehicle>
    <vehicle id="17" depart="17.00">
        <route edges="E3"/>
    </vehicle>
    <vehicle id="22" depart="22.00">
        <route edges="E0 E3 E6 E12"/>
    </vehicle>
    <vehicle id="23" depart="23.00">
        <route edges="E0 E15"/>
    </vehicle>
    <vehicle id="31" depart="31.00">
        <route edges="E4 E5"/>
    </vehicle>
    <vehicle id="33" depart="33.00">
        <route edges="E1"/>
    </vehicle>
    <vehicle id="35" depart="35.00">
        <route edges="E1 E9"/>
    </vehicle>
    <vehicle id="42" depart="42.00">
        <route edges="E3 E6 E12"/>
    </vehicle>
    <vehicle id="44" depart="44.00">
        <route edges="E0 E1"/>
    </vehicle>
    <vehicle id="45" depart="45.00">
        <route edges="E0 E3 E4"/>
    </vehicle>
    <vehicle id="47" depart="47.00">
        <route edges="E0 E3 E16"/>
    </vehicle>
    <vehicle id="50" depart="50.00">
        <route edges="E0 E3 E4 E5"/>
    </vehicle>
    <vehicle id="53" depart="53.00">
        <route edges="E0 E3 E6 E18"/>
    </vehicle>
    <vehicle id="57" depart="57.00">
        <route edges="E9 E10 E8"/>
    </vehicle>
    <vehicle id="62" depart="62.00">
        <route edges="E0 E15"/>
    </vehicle>
    <vehicle id="63" depart="63.00">
        <route edges="E0 E3 E6 E7 E8"/>
    </vehicle>
    <vehicle id="66" depart="66.00">
        <route edges="E9"/>
    </vehicle>
    <vehicle id="67" depart="67.00">
        <route edges="E0 E1 E2"/>
    </vehicle>
    <vehicle id="68" depart="68.00">
        <route edges="E0 E3 E6"/>
    </vehicle>
    <vehicle id="70" depart="70.00">
        <route edges="E3"/>
    </vehicle>
    <vehicle id="71" depart="71.00">
        <route edges="E10 E8"/>
    </vehicle>
    <vehicle id="72" depart="72.00">
        <route edges="E3 E6 E12"/>
    </vehicle>
    <vehicle id="73" depart="73.00">
        <route edges="E4 E5"/>
    </vehicle>
    <vehicle id="77" depart="77.00">
        <route edges="E0 E3 E6 E12"/>
    </vehicle>
    <vehicle id="80" depart="80.00">
        <route edges="E0 E3 E4"/>
    </vehicle>
    <vehicle id="81" depart="81.00">
        <route edges="E1 E9 E10 E8"/>
    </vehicle>
    <vehicle id="84" depart="84.00">
        <route edges="E1 E9 E10"/>
    </vehicle>
    <vehicle id="86" depart="86.00">
        <route edges="E3 E6"/>
    </vehicle>
    <vehicle id="87" depart="87.00">
        <route edges="E7 E11"/>
    </vehicle>
    <vehicle id="88" depart="88.00">
        <route edges="E0 E3 E6 E18"/>
    </vehicle>
    <vehicle id="91" depart="91.00">
        <route edges="E9 E10"/>
    </vehicle>
    <vehicle id="92" depart="92.00">
        <route edges="E3 E16"/>
    </vehicle>
    <vehicle id="96" depart="96.00">
        <route edges="E1 E9 E10 E8"/>
    </vehicle>
    <vehicle id="97" depart="97.00">
        <route edges="E3 E6 E7"/>
    </vehicle>
    <vehicle id="100" depart="100.00">
        <route edges="E9 E10 E8"/>
    </vehicle>
    <vehicle id="101" depart="101.00">
        <route edges="E7 E11"/>
    </vehicle>
    <vehicle id="102" depart="102.00">
        <route edges="E3 E6 E12"/>
    </vehicle>
    <vehicle id="106" depart="106.00">
        <route edges="E3 E6 E18"/>
    </vehicle>
    <vehicle id="107" depart="107.00">
        <route edges="E9"/>
    </vehicle>
    <vehicle id="108" depart="108.00">
        <route edges="E4 E5"/>
    </vehicle>
    <vehicle id="112" depart="112.00">
        <route edges="E0 E3"/>
    </vehicle>
    <vehicle id="114" depart="114.00">
        <route edges="E1 E9"/>
    </vehicle>
    <vehicle id="115" depart="115.00">
        <route edges="E0 E3 E6 E7 E11"/>
    </vehicle>
    <vehicle id="116" depart="116.00">
        <route edges="E4 E5"/>
    </vehicle>
    <vehicle id="117" depart="117.00">
        <route edges="E1 E9 E10"/>
    </vehicle>
    <vehicle id="119" depart="119.00">
        <route edges="E4"/>
    </vehicle>
    <vehicle id="120" depart="120.00">
        <route edges="E3"/>
    </vehicle>
    <vehicle id="126" depart="126.00">
        <route edges="E0 E3 E6 E18"/>
    </vehicle>
    <vehicle id="127" depart="127.00">
        <route edges="E9"/>
    </vehicle>
    <vehicle id="128" depart="128.00">
        <route edges="E0 E3 E6 E12"/>
    </vehicle>
    <vehicle id="129" depart="129.00">
        <route edges="E10 E8"/>
    </vehicle>
    <vehicle id="130" depart="130.00">
        <route edges="E9 E10 E8"/>
    </vehicle>
    <vehicle id="131" depart="131.00">
        <route edges="E10 E11"/>
    </vehicle>
    <vehicle id="137" depart="137.00">
        <route edges="E1 E9 E10"/>
    </vehicle>
    <vehicle id="138" depart="138.00">
        <route edges="E0 E3"/>
    </vehicle>
    <vehicle id="140" depart="140.00">
        <route edges="E6 E12"/>
    </vehicle>
    <vehicle id="141" depart="141.00">
        <route edges="E6 E12"/>
    </vehicle>
    <vehicle id="142" depart="142.00">
        <route edges="E3 E6 E7 E8"/>
    </vehicle>
    <vehicle id="145" depart="145.00">
        <route edges="E0 E3 E6"/>
    </vehicle>
    <vehicle id="146" depart="146.00">
        <route edges="E6 E12"/>
    </vehicle>
    <vehicle id="149" depart="149.00">
        <route edges="E0 E3 E6 E7 E8"/>
    </vehicle>
    <vehicle id="152" depart="152.00">
        <route edges="E1 E9 E10"/>
    </vehicle>
    <vehicle id="153" depart="153.00">
        <route edges="E10 E8"/>
    </vehicle>
    <vehicle id="154" depart="154.00">
        <route edges="E7"/>
    </vehicle>
    <vehicle id="156" depart="156.00">
        <route edges="E1 E9 E10"/>
    </vehicle>
    <vehicle id="157" depart="157.00">
        <route edges="E7 E8"/>
    </vehicle>
    <vehicle id="158" depart="158.00">
        <route edges="E3 E4"/>
    </vehicle>
    <vehicle id="159" depart="159.00">
        <route edges="E1 E9 E10 E8"/>
    </vehicle>
    <vehicle id="161" depart="161.00">
        <route edges="E7 E8"/>
    </vehicle>
    <vehicle id="162" depart="162.00">
        <route edges="E0 E3 E6"/>
    </vehicle>
    <vehicle id="163" depart="163.00">
        <route edges="E10 E8"/>
    </vehicle>
    <vehicle id="164" depart="164.00">
        <route edges="E7"/>
    </vehicle>
    <vehicle id="167" depart="167.00">
        <route edges="E7"/>
    </vehicle>
    <vehicle id="171" depart="171.00">
        <route edges="E0 E3 E6 E7 E11"/>
    </vehicle>
    <vehicle id="176" depart="176.00">
        <route edges="E9 E10"/>
    </vehicle>
    <vehicle id="177" depart="177.00">
        <route edges="E9 E10 E11"/>
    </vehicle>
    <vehicle id="179" depart="179.00">
        <route edges="E0 E3 E6 E18"/>
    </vehicle>
    <vehicle id="182" depart="182.00">
        <route edges="E3"/>
    </vehicle>
    <vehicle id="184" depart="184.00">
        <route edges="E0 E3 E6 E7 E8"/>
    </vehicle>
    <vehicle id="185" depart="185.00">
        <route edges="E4 E5"/>
    </vehicle>
    <vehicle id="187" depart="187.00">
        <route edges="E10"/>
    </vehicle>
    <vehicle id="197" depart="197.00">
        <route edges="E0 E15"/>
    </vehicle>
    <vehicle id="198" depart="198.00">
        <route edges="E3"/>
    </vehicle>
    <vehicle id="199" depart="199.00">
        <route edges="E6 E18"/>
    </vehicle>
    <vehicle id="200" depart="200.00">
        <route edges="E3 E6 E12"/>
    </vehicle>
    <vehicle id="201" depart="201.00">
        <route edges="E3 E6 E7 E8"/>
    </vehicle>
    <vehicle id="202" depart="202.00">
        <route edges="E7 E11"/>
    </vehicle>
    <vehicle id="203" depart="203.00">
        <route edges="E0 E1 E2"/>
    </vehicle>
    <vehicle id="206" depart="206.00">
        <route edges="E6 E12"/>
    </vehicle>
    <vehicle id="207" depart="207.00">
        <route edges="E1"/>
    </vehicle>
    <vehicle id="208" depart="208.00">
        <route edges="E1 E2"/>
    </vehicle>
    <vehicle id="210" depart="210.00">
        <route edges="E3 E4"/>
    </vehicle>
    <vehicle id="212" depart="212.00">
        <route edges="E3 E6 E12"/>
    </vehicle>
    <vehicle id="215" depart="215.00">
        <route edges="E0 E3 E6 E18"/>
    </vehicle>
    <vehicle id="216" depart="216.00">
        <route edges="E1 E9"/>
    </vehicle>
    <vehicle id="219" depart="219.00">
        <route edges="E3 E6 E7"/>
    </vehicle>
    <vehicle id="226" depart="226.00">
        <route edges="E3 E6 E12"/>
    </vehicle>
    <vehicle id="230" depart="230.00">
        <route edges="E0 E15"/>
    </vehicle>
    <vehicle id="235" depart="235.00">
        <route edges="E3"/>
    </vehicle>
    <vehicle id="236" depart="236.00">
        <route edges="E3 E6 E12"/>
    </vehicle>
    <vehicle id="237" depart="237.00">
        <route edges="E3 E6 E7 E8"/>
    </vehicle>
    <vehicle id="238" depart="238.00">
        <route edges="E4 E5"/>
    </vehicle>
    <vehicle id="243" depart="243.00">
        <route edges="E3 E6"/>
    </vehicle>
    <vehicle id="244" depart="244.00">
        <route edges="E4"/>
    </vehicle>
    <vehicle id="248" depart="248.00">
        <route edges="E3 E6 E7 E11"/>
    </vehicle>
    <vehicle id="251" depart="251.00">
        <route edges="E3"/>
    </vehicle>
    <vehicle id="252" depart="252.00">
        <route edges="E0 E3 E4"/>
    </vehicle>
    <vehicle id="254" depart="254.00">
        <route edges="E0 E3 E16"/>
    </vehicle>
    <vehicle id="257" depart="257.00">
        <route edges="E7"/>
    </vehicle>
    <vehicle id="258" depart="258.00">
        <route edges="E10"/>
    </vehicle>
    <vehicle id="259" depart="259.00">
        <route edges="E0 E3"/>
    </vehicle>
    <vehicle id="261" depart="261.00">
        <route edges="E6"/>
    </vehicle>
    <vehicle id="262" depart="262.00">
        <route edges="E6"/>
    </vehicle>
    <vehicle id="263" depart="263.00">
        <route edges="E9 E10 E11"/>
    </vehicle>
    <vehicle id="264" depart="264.00">
        <route edges="E0 E3 E6 E7 E11"/>
    </vehicle>
    <vehicle id="267" depart="267.00">
        <route edges="E6"/>
    </vehicle>
    <vehicle id="271" depart="271.00">
        <route edges="E0 E1"/>
    </vehicle>
    <vehicle id="276" depart="276.00">
        <route edges="E0 E3 E6"/>
    </vehicle>
    <vehicle id="278" depart="278.00">
        <route edges="E0 E1 E9"/>
    </vehicle>
    <vehicle id="280" depart="280.00">
        <route edges="E3 E16"/>
    </vehicle>
    <vehicle id="282" depart="282.00">
        <route edges="E7"/>
    </vehicle>
    <vehicle id="283" depart="283.00">
        <route edges="E0 E1 E9"/>
    </vehicle>
    <vehicle id="284" depart="284.00">
        <route edges="E6 E7"/>
    </vehicle>
    <vehicle id="285" depart="285.00">
        <route edges="E6 E18"/>
    </vehicle>
    <vehicle id="289" depart="289.00">
        <route edges="E3 E4 E5"/>
    </vehicle>
    <vehicle id="293" depart="293.00">
        <route edges="E3 E4"/>
    </vehicle>
    <vehicle id="295" depart="295.00">
        <route edges="E7 E11"/>
    </vehicle>
    <vehicle id="297" depart="297.00">
        <route edges="E10 E8"/>
    </vehicle>
    <vehicle id="299" depart="299.00">
        <route edges="E0 E1 E9"/>
    </vehicle>
</routes>
